[General]
sim-time-limit = 3600s

[Config TokenRing]
network = TokenRing
TokenRing.n = 20
TokenRing.node[0].sendMsgOnInit = true
**.usePeriod = uniform(3s,4s)
