[General]
sim-time-limit = 3600s
network = Raft

[Config Servers_5]
description = "Cluster of 5 servers"
Raft.server[0].isLeader = true
**.hearthBeatTime = 0.1s
