[General]
sim-time-limit = 3600s
network = Raft

[Config Servers_5]
description = "Cluster of 5 servers"
**.hearthBeatTime = 0.01s
**.lowElectionTimeout = 0.05s
**.highElectionTimeout = 0.45s
**.resendTimeout = 0.03s
**.delay = 0.0001s


