[General]
sim-time-limit = 3600s
network = Raft

[Config Servers_3]
description = "Cluster of 3 servers"
**.numServers = 3
**.numClients = 2
**hearthBeatTime = 0.02s
**lowElectionTimeout = 0.05s
**highElectionTimeout = 0.45s
**resendTimeout = 0.1s

**switch.delay = 0.00001s

**admin.resendTimer = 1s
**admin.numberOfNewServers = 2
**admin.numberOfserversToRemove = 1
**admin.changeConfigTime = 4s

**lowCommandTimeout = 0.3s
**highCommandTimeout = 0.5s
**requestTimeout = 3s
